Circuit: * Z:\home\renata\Escritorio\UTN\Teoría de Circuitos II\Personal\TCII\Trabajos semanales\TS12\TPS12_ej2.asc


Date: Fri Nov 24 17:04:16 2023
Total elapsed time: 0.011 seconds.

tnom = 27
temp = 27
method = trap
totiter = 0
traniter = 0
tranpoints = 0
accept = 0
rejected = 0
matrix size = 3
fillins = 0
solver = Normal

