Circuit: * C:\users\renata\Escritorio\UTN\Teoría de Circuitos II\Personal\TCII\Parciales\Priemer parcial\Draft1.asc

WARNING: Node N003 is floating.

Ignoring empty pin current: Ix(u1:1)
Ignoring empty pin current: Ix(u1:2)
Ignoring empty pin current: Ix(u2:1)
Ignoring empty pin current: Ix(u2:2)

Date: Thu Jul 13 11:28:50 2023
Total elapsed time: 0.045 seconds.

tnom = 27
temp = 27
method = trap
totiter = 0
traniter = 0
tranpoints = 0
accept = 0
rejected = 0
matrix size = 8
fillins = 15
solver = Normal

