Circuit: * C:\users\renata\Escritorio\UTN\Teoría de Circuitos II\Personal\TCII\Trabajos semanales\TS4 bis\Draft1.asc

ERROR: Node NC_01 is floating and connected to current source G:U1:4:11

No AC stimulus found:
     Set the value of a current or voltage source to "AC 1."
     to make it behave as a signal generator for AC analysis.
Early termination of direct N-R iteration.
Direct Newton iteration failed to find .op point.  (Use ".option noopiter" to skip.)
Starting Gmin stepping
Gmin = 10
vernier = 0.5
vernier = 0.25
vernier = 0.125
Gmin = 5.49741
vernier = 0.0625
vernier = 0.03125
vernier = 0.015625
vernier = 0.0078125
vernier = 0.00390625
Gmin = 5.49741
vernier = 0.00195313
vernier = 0.000976563
vernier = 0.000488281
Gmin = 5.48937
Gmin = 0
Gmin stepping failed

Starting source stepping with srcstepmethod=0
Source Step = 3.0303%
vernier = 0.25
Source Step = 7.57576%
Source Step = 15.1515%
Source Step = 22.7273%
Source Step = 30.303%
Source Step = 37.8788%
vernier = 0.375
Source Step = 48.8636%
Source Step = 60.2273%
Source Step = 71.5909%
Source Step = 82.9545%
Source Step = 94.3182%
vernier = 0.5625
Source stepping succeeded in finding the operating point.


Date: Mon Jun 12 21:34:41 2023
Total elapsed time: 2.753 seconds.

tnom = 27
temp = 27
method = trap
totiter = 2179
traniter = 0
tranpoints = 0
accept = 0
rejected = 0
matrix size = 119
fillins = 831
solver = Normal
Matrix Compiler1:    4654 opcodes
Matrix Compiler2: 24.54 KB object code size  31.9/25.6/[10.9]

