Circuit: * C:\users\renata\Escritorio\UTN\Teoría de Circuitos II\Personal\TCII\Trabajos semanales\TS04 bis\TPS4bis_pasivo.asc

WARNING: Node N002 is floating.


Date: Wed Nov 22 20:07:57 2023
Total elapsed time: 0.060 seconds.

tnom = 27
temp = 27
method = trap
totiter = 0
traniter = 0
tranpoints = 0
accept = 0
rejected = 0
matrix size = 6
fillins = 0
solver = Normal

