Circuit: * C:\users\renata\Escritorio\UTN\Teoría de Circuitos II\Personal\TCII\Trabajos semanales\TS11\TPS11_ej2.asc

WARNING: Node VO is floating.


Date: Wed Nov 22 20:24:00 2023
Total elapsed time: 0.063 seconds.

tnom = 27
temp = 27
method = trap
totiter = 0
traniter = 0
tranpoints = 0
accept = 0
rejected = 0
matrix size = 5
fillins = 1
solver = Normal

