Circuit: * C:\users\renata\Escritorio\UTN\Teoría de Circuitos II\Personal\Trabajos semanales\TS3\TS3.asc

Ignoring empty pin current: Ix(u1:1)
Ignoring empty pin current: Ix(u1:2)

Date: Thu May 25 10:50:10 2023
Total elapsed time: 0.025 seconds.

tnom = 27
temp = 27
method = trap
totiter = 0
traniter = 0
tranpoints = 0
accept = 0
rejected = 0
matrix size = 6
fillins = 0
solver = Normal

