Circuit: * C:\users\renata\Escritorio\UTN\Teoría de Circuitos II\Personal\TCII\Trabajos semanales\TS4\TS4.asc

Ignoring empty pin current: Ix(u1:1)
Ignoring empty pin current: Ix(u1:2)

Date: Thu Jun 29 20:21:45 2023
Total elapsed time: 0.053 seconds.

tnom = 27
temp = 27
method = trap
totiter = 0
traniter = 0
tranpoints = 0
accept = 0
rejected = 0
matrix size = 6
fillins = 1
solver = Normal

