Circuit: * C:\users\renata\Escritorio\UTN\Teoría de Circuitos II\Personal\Trabajos semanales\TS3\Draft2.asc

Ignoring empty pin current: Ix(u1:1)
Ignoring empty pin current: Ix(u1:2)
Ignoring empty pin current: Ix(u2:1)
Ignoring empty pin current: Ix(u2:2)

Date: Thu May 25 18:11:37 2023
Total elapsed time: 0.018 seconds.

tnom = 27
temp = 27
method = trap
totiter = 0
traniter = 0
tranpoints = 0
accept = 0
rejected = 0
matrix size = 8
fillins = 11
solver = Normal

